FoamFile
{
    version     2.0;
    format      ascii;
    class       dictionary;
    object      blockMeshDict;
}
convertToMeters 1;

vertices
(
    (-5  -5   0)
    (10  -5   0)
    (10   5   0)
    (-5   5   0)
    (-5  -5   0.01)
    (10  -5   0.01)
    (10   5   0.01)
    (-5   5   0.01)
);

blocks
(
    // Nx Ny Nz → 300 x 180 x 1 celle
    hex (0 1 2 3 4 5 6 7) (300 180 1) simpleGrading (1 1 1)
);

edges
(
);

boundary
(
    inlet
    {
        type patch;
        faces ( (0 4 7 3) );
    }
    outlet
    {
        type patch;
        faces ( (1 2 6 5) );
    }
    bottom
    {
        type patch;
        faces ( (0 1 5 4) );
    }
    top
    {
        type patch;
        faces ( (3 7 6 2) );
    }
    front
    {
        type empty;   // 2D
        faces ( (0 3 2 1) );
    }
    back
    {
        type empty;   // 2D
        faces ( (4 5 6 7) );
    }
);

mergePatchPairs ();
