/*--------------------------------*- C++ -*----------------------------------*\
| =========                 | OpenFOAM v8                                    |
\*---------------------------------------------------------------------------*/
FoamFile
{
    version     2.0;
    format      ascii;
    class       dictionary;
    location    "system";
    object      fvSchemes;
}

ddtSchemes
{
    default         steadyState;
}

gradSchemes
{
    default         leastSquares;
}

divSchemes
{
    div(phi,U)      Gauss upwind;                // robust per partire
    div(phi,k)      Gauss upwind;
    div(phi,omega)  Gauss upwind;
    div((nuEff*dev2(T(grad(U)))))  Gauss linear;
}

laplacianSchemes
{
    default         Gauss linear corrected;
}

interpolationSchemes
{
    default         linear;
}

snGradSchemes
{
    default         corrected;
}

wallDist
{
    method          meshWave;
}
// ************************************************************************* //
