/*--------------------------------*- C++ -*----------------------------------*\
| =========                 | OpenFOAM v8                                    |
\*---------------------------------------------------------------------------*/
FoamFile
{
    version     2.0;
    format      ascii;
    class       dictionary;
    location    "system";
    object      fvSolution;
}
solvers
{
    p
    {
        solver          PCG;
        preconditioner  DIC;
        tolerance       1e-06;
        relTol          0.01;
    }

    U
    {
        solver          smoothSolver;
        smoother        symGaussSeidel;
        tolerance       1e-05;
        relTol          0.1;
    }

    k
    {
        solver          smoothSolver;
        smoother        symGaussSeidel;
        tolerance       1e-05;
        relTol          0.1;
    }

    omega
    {
        solver          smoothSolver;
        smoother        symGaussSeidel;
        tolerance       1e-05;
        relTol          0.1;
    }

    nut
    {
        solver          smoothSolver;
        smoother        symGaussSeidel;
        tolerance       1e-05;
        relTol          0.1;
    }
}
SIMPLE
{
    nNonOrthogonalCorrectors 0;

    // Se il dominio è "chiuso", imposta un riferimento di pressione:
    pRefCell    0;
    pRefValue   0;

    residualControl
    {
        p               1e-3;
        U               1e-4;
        "(k|omega|nut)" 1e-4;
    }
}
relaxationFactors
{
    fields { p 0.3; }
    equations
    {
        U       0.7;
        k       0.7;
        omega   0.7;
    }
}
// ************************************************************************* //
