/*--------------------------------*- C++ -*----------------------------------*\
| =========                 | OpenFOAM v8                                    |
\*---------------------------------------------------------------------------*/
FoamFile
{
    version     2.0;
    format      ascii;
    class       dictionary;
    location    "constant";
    object      transportProperties;
}
// Incomprimibile Newtoniano: nu in m^2/s
transportModel  Newtonian;
nu              [0 2 -1 0 0 0 0] 1.5e-05;
// ************************************************************************* //
